MT3DMS Heading1
MT3DMS Heading2
         1        54        45         1         1         1
SEC UNDFkg  
 T T T F T F F F F F
 1
       103        1.                             0
4*1.005244939128E+002 1.005244939128E+002 1.005244939128E+002 1.005244939128E+002 1.005244939128E+002 2*1.005244939128E+002 1.005244939128E+002 1.005244939128E+002 1.005244939128E+002 1.005244939128E+002 1.005244939128E+002 2*1.005244939128E+002 1.005244939128E+002 1.005244939128E+002 1.005244939128E+002 1.005244939128E+002 1.005244939128E+002 3*1.005244939128E+002 1.005244939128E+002 3*1.005244939128E+002 1.005244939128E+002 4*1.005244939128E+002 1.005244939128E+002 3*1.005244939128E+002 1.005244939128E+002 4*1.005244939128E+002 1.005244939128E+002 1.005244939128E+002 
       103        1.                             0
2*1.003962048679E+002 1.003962048679E+002 2*1.003962048679E+002 1.003962048679E+002 3*1.003962048679E+002 1.003962048679E+002 3*1.003962048679E+002 1.003962048679E+002 2*1.003962048679E+002 1.003962048679E+002 3*1.003962048679E+002 1.003962048679E+002 2*1.003962048679E+002 1.003962048679E+002 3*1.003962048679E+002 1.003962048679E+002 2*1.003962048679E+002 1.003962048679E+002 3*1.003962048679E+002 1.003962048679E+002 3*1.003962048679E+002 1.003962048679E+002 2*1.003962048679E+002 1.003962048679E+002 2*1.003962048679E+002 2*1.003962048679E+002 1.003962048679E+002 1.003962048679E+002 1.003962048679E+002 1.003962048679E+002 1.003962048679E+002 1.003962048679E+002 1.003962048679E+002 1.003962048679E+002 
       103        1.                             0
 7.12957301934874E+0001  7.14189886508478E+0001  7.16608600013401E+0001  7.18760895303602E+0001  7.20745199469839E+0001  7.26461590438934E+0001  7.34461258351101E+0001  7.41831699593248E+0001  7.45478845752063E+0001  7.46451639344575E+0001  7.46739980682193E+0001  7.45668281456634E+0001  7.44924455384346E+0001  7.46250304683832E+0001  7.46289674625222E+0001  7.46312801068667E+0001  7.46596098534213E+0001  7.47020231599676E+0001  7.47106273480306E+0001  7.47924414074601E+0001  7.47799642927944E+0001  7.47796211889531E+0001  7.47297603544340E+0001  7.47155112577488E+0001  7.47182620633699E+0001  7.47371491233333E+0001  7.47884433710856E+0001  7.47923494021415E+0001  7.47943770858879E+0001  7.47341125707669E+0001  7.47257442572690E+0001  7.46814926715119E+0001  7.46716916854844E+0001  7.47013263883484E+0001  7.47775804206402E+0001  7.47424701172807E+0001  7.50000000000000E+0001  7.40002637607306E+0001  7.31805752592164E+0001  7.28097028323881E+0001  7.25078228146466E+0001  7.19781039125430E+0001  7.17519021887588E+0001  7.16923495054732E+0001  7.16549113258198E+0001 
 7.12262283346459E+0001  7.12703778791879E+0001  7.14451406862069E+0001  7.16483514836436E+0001  7.20580000000000E+0001  7.25430000000000E+0001  7.34810000000000E+0001  7.50000000000000E+0001  7.50000000000000E+0001  7.46873058252244E+0001  7.46304260238875E+0001  7.45823158558616E+0001  7.45939533563778E+0001  7.46009543263151E+0001  7.46053338860455E+0001  7.46075996481561E+0001  7.46071834737174E+0001  7.46683414928903E+0001  7.47414952189841E+0001  7.50000000000000E+0001  7.50000000000000E+0001  7.50000000000000E+0001  7.50000000000000E+0001  7.50000000000000E+0001  7.50000000000000E+0001  7.50000000000000E+0001  7.50000000000000E+0001  7.50000000000000E+0001  7.50000000000000E+0001  7.47626864830995E+0001  7.46949805009835E+0001  7.46301976143011E+0001  7.46182865156888E+0001  7.46741838567581E+0001  7.47054123053883E+0001  7.50000000000000E+0001  7.50000000000000E+0001  7.36390000000000E+0001  7.29360000000000E+0001  7.23175405622618E+0001  7.20086417999246E+0001  7.17259740954400E+0001  7.16516032174558E+0001  7.16106969944175E+0001  7.12523124695421E+0001 
 7.09672668197279E+0001  7.11071155803009E+0001  7.11509262018527E+0001  7.12340000000000E+0001  7.15940000000000E+0001  7.20730000000000E+0001  7.28120000000000E+0001  7.38330000000000E+0001  7.50000000000000E+0001  7.50000000000000E+0001  7.50000000000000E+0001  7.50000000000000E+0001  7.50000000000000E+0001  7.50000000000000E+0001  7.50000000000000E+0001  7.50000000000000E+0001  7.50000000000000E+0001  7.50000000000000E+0001  7.50000000000000E+0001  7.50000000000000E+0001  7.42880000000000E+0001  7.40390000000000E+0001  7.39500000000000E+0001  7.39250000000000E+0001  7.39370000000000E+0001  7.39830000000000E+0001  7.40870000000000E+0001  7.43330000000000E+0001  7.50000000000000E+0001  7.50000000000000E+0001  7.50000000000000E+0001  7.50000000000000E+0001  7.50000000000000E+0001  7.50000000000000E+0001  7.50000000000000E+0001  7.50000000000000E+0001  7.38820000000000E+0001  7.29300000000000E+0001  7.22510000000000E+0001  7.17000000000000E+0001  7.16176263892042E+0001  7.14824394820300E+0001  7.09957506746172E+0001  7.09167788045604E+0001  7.08686799300786E+0001 
 7.07326371485657E+0001  7.07872860816458E+0001  7.08584819723525E+0001  7.08910000000000E+0001  7.10530000000000E+0001  7.13750000000000E+0001  7.18730000000000E+0001  7.25010000000000E+0001  7.31030000000000E+0001  7.33300000000000E+0001  7.34330000000000E+0001  7.34880000000000E+0001  7.35210000000000E+0001  7.35430000000000E+0001  7.35580000000000E+0001  7.35670000000000E+0001  7.35700000000000E+0001  7.35610000000000E+0001  7.35290000000000E+0001  7.34360000000000E+0001  7.31560000000000E+0001  7.29800000000000E+0001  7.28970000000000E+0001  7.28780000000000E+0001  7.29040000000000E+0001  7.29710000000000E+0001  7.30920000000000E+0001  7.32890000000000E+0001  7.35660000000000E+0001  7.36580000000000E+0001  7.36800000000000E+0001  7.36670000000000E+0001  7.36270000000000E+0001  7.35560000000000E+0001  7.34340000000000E+0001  7.31900000000000E+0001  7.25890000000000E+0001  7.19690000000000E+0001  7.14780000000000E+0001  7.11660000000000E+0001  7.11078917915373E+0001  7.10857752737840E+0001  7.08139801827089E+0001  7.07833679332867E+0001  7.07684577608690E+0001 
 7.05781828095573E+0001  7.04474186302131E+0001  7.04542157841771E+0001  7.04280000000000E+0001  7.04050000000000E+0001  7.05490000000000E+0001  7.08430000000000E+0001  7.12230000000000E+0001  7.15860000000000E+0001  7.18130000000000E+0001  7.19510000000000E+0001  7.20370000000000E+0001  7.20940000000000E+0001  7.21340000000000E+0001  7.21640000000000E+0001  7.21840000000000E+0001  7.21940000000000E+0001  7.21900000000000E+0001  7.21630000000000E+0001  7.20950000000000E+0001  7.19740000000000E+0001  7.18810000000000E+0001  7.18380000000000E+0001  7.18420000000000E+0001  7.18850000000000E+0001  7.19630000000000E+0001  7.20750000000000E+0001  7.22160000000000E+0001  7.23620000000000E+0001  7.24350000000000E+0001  7.24450000000000E+0001  7.24090000000000E+0001  7.23310000000000E+0001  7.22080000000000E+0001  7.20270000000000E+0001  7.17520000000000E+0001  7.13460000000000E+0001  7.09210000000000E+0001  7.05750000000000E+0001  7.03740000000000E+0001  7.03476582075940E+0001  7.03271835378386E+0001  7.03169574289528E+0001  7.02053043007286E+0001  7.01949367934803E+0001 
 7.01409562553438E+0001  7.00212961979106E+0001  7.00121297974984E+0001  7.00310000000000E+0001  6.96460000000000E+0001  6.96270000000000E+0001  6.97770000000000E+0001  7.00040000000000E+0001  7.02370000000000E+0001  7.04220000000000E+0001  7.05560000000000E+0001  7.06520000000000E+0001  7.07240000000000E+0001  7.07780000000000E+0001  7.08200000000000E+0001  7.08520000000000E+0001  7.08740000000000E+0001  7.08850000000000E+0001  7.08790000000000E+0001  7.08530000000000E+0001  7.08110000000000E+0001  7.07830000000000E+0001  7.07850000000000E+0001  7.08200000000000E+0001  7.08840000000000E+0001  7.09730000000000E+0001  7.10780000000000E+0001  7.11880000000000E+0001  7.12790000000000E+0001  7.13200000000000E+0001  7.13050000000000E+0001  7.12380000000000E+0001  7.11240000000000E+0001  7.09630000000000E+0001  7.07520000000000E+0001  7.04830000000000E+0001  7.01610000000000E+0001  6.98400000000000E+0001  6.95820000000000E+0001  6.94350000000000E+0001  6.94216617037641E+0001  6.94093034109975E+0001  6.93319266142841E+0001  6.93212337114030E+0001  6.93154524264126E+0001 
 6.92344300840300E+0001  6.92066013670957E+0001  6.92037765712535E+0001  6.90132940752919E+0001  6.85700000000000E+0001  6.85910000000000E+0001  6.86820000000000E+0001  6.88220000000000E+0001  6.89770000000000E+0001  6.91180000000000E+0001  6.92350000000000E+0001  6.93310000000000E+0001  6.94080000000000E+0001  6.94720000000000E+0001  6.95250000000000E+0001  6.95700000000000E+0001  6.96070000000000E+0001  6.96360000000000E+0001  6.96560000000000E+0001  6.96690000000000E+0001  6.96800000000000E+0001  6.97020000000000E+0001  6.97460000000000E+0001  6.98150000000000E+0001  6.99060000000000E+0001  7.00120000000000E+0001  7.01240000000000E+0001  7.02250000000000E+0001  7.02930000000000E+0001  7.03070000000000E+0001  7.02620000000000E+0001  7.01590000000000E+0001  7.00070000000000E+0001  6.98110000000000E+0001  6.95760000000000E+0001  6.93060000000000E+0001  6.90170000000000E+0001  6.87420000000000E+0001  6.85240000000000E+0001  6.84020000000000E+0001  6.83923152579430E+0001  6.83823991789555E+0001  6.83207600608047E+0001  6.77077195822911E+0001  6.70346480026262E+0001 
 6.84611811966099E+0001  6.81203275615758E+0001  6.80671136084548E+0001  6.76474153841436E+0001  6.75220000000000E+0001  6.75370000000000E+0001  6.75860000000000E+0001  6.76680000000000E+0001  6.77700000000000E+0001  6.78750000000000E+0001  6.79740000000000E+0001  6.80630000000000E+0001  6.81420000000000E+0001  6.82130000000000E+0001  6.82760000000000E+0001  6.83340000000000E+0001  6.83860000000000E+0001  6.84350000000000E+0001  6.84810000000000E+0001  6.85280000000000E+0001  6.85790000000000E+0001  6.86430000000000E+0001  6.87260000000000E+0001  6.88310000000000E+0001  6.89540000000000E+0001  6.90900000000000E+0001  6.92240000000000E+0001  6.93370000000000E+0001  6.94020000000000E+0001  6.93970000000000E+0001  6.93170000000000E+0001  6.91710000000000E+0001  6.89740000000000E+0001  6.87380000000000E+0001  6.84720000000000E+0001  6.81880000000000E+0001  6.78980000000000E+0001  6.76300000000000E+0001  6.74160000000000E+0001  6.72920000000000E+0001  6.72802442562891E+0001  6.68893782317447E+0001  6.63500312034670E+0001  6.54936973775339E+0001  6.40828746910893E+0001 
 6.73032493609700E+0001  6.67095775330264E+0001  6.68052626687916E+0001  6.65298720909598E+0001  6.65060000000000E+0001  6.64950000000000E+0001  6.65020000000000E+0001  6.65390000000000E+0001  6.66010000000000E+0001  6.66770000000000E+0001  6.67590000000000E+0001  6.68410000000000E+0001  6.69200000000000E+0001  6.69950000000000E+0001  6.70680000000000E+0001  6.71370000000000E+0001  6.72050000000000E+0001  6.72740000000000E+0001  6.73440000000000E+0001  6.74190000000000E+0001  6.75040000000000E+0001  6.76050000000000E+0001  6.77250000000000E+0001  6.78670000000000E+0001  6.80300000000000E+0001  6.82080000000000E+0001  6.83840000000000E+0001  6.85340000000000E+0001  6.86190000000000E+0001  6.86020000000000E+0001  6.84780000000000E+0001  6.82730000000000E+0001  6.80170000000000E+0001  6.77300000000000E+0001  6.74250000000000E+0001  6.71090000000000E+0001  6.67960000000000E+0001  6.65020000000000E+0001  6.62560000000000E+0001  6.61000000000000E+0001  6.58870486203637E+0001  6.49260638945173E+0001  6.40217442121681E+0001  6.32283085088496E+0001  6.26710701799815E+0001 
 6.62230415413951E+0001  6.61160764913134E+0001  6.55949958789856E+0001  6.55717987332925E+0001  6.55420000000000E+0001  6.54770000000000E+0001  6.54310000000000E+0001  6.54260000000000E+0001  6.54570000000000E+0001  6.55120000000000E+0001  6.55810000000000E+0001  6.56570000000000E+0001  6.57350000000000E+0001  6.58150000000000E+0001  6.58950000000000E+0001  6.59760000000000E+0001  6.60580000000000E+0001  6.61440000000000E+0001  6.62360000000000E+0001  6.63360000000000E+0001  6.64500000000000E+0001  6.65820000000000E+0001  6.67370000000000E+0001  6.69180000000000E+0001  6.71270000000000E+0001  6.73610000000000E+0001  6.76070000000000E+0001  6.78310000000000E+0001  6.79730000000000E+0001  6.79490000000000E+0001  6.77530000000000E+0001  6.74600000000000E+0001  6.71260000000000E+0001  6.67760000000000E+0001  6.64200000000000E+0001  6.60620000000000E+0001  6.57070000000000E+0001  6.53610000000000E+0001  6.50400000000000E+0001  6.47860000000000E+0001  6.37483056587969E+0001  6.30724309633096E+0001  6.20445655178062E+0001  6.14836918469254E+0001  6.08337616187008E+0001 
 6.44851633223548E+0001  6.45392029019826E+0001  6.47635437987392E+0001  6.47424740693171E+0001  6.46810000000000E+0001  6.44790000000000E+0001  6.43570000000000E+0001  6.43150000000000E+0001  6.43260000000000E+0001  6.43690000000000E+0001  6.44310000000000E+0001  6.45030000000000E+0001  6.45830000000000E+0001  6.46660000000000E+0001  6.47540000000000E+0001  6.48440000000000E+0001  6.49400000000000E+0001  6.50410000000000E+0001  6.51510000000000E+0001  6.52730000000000E+0001  6.54100000000000E+0001  6.55690000000000E+0001  6.57550000000000E+0001  6.59740000000000E+0001  6.62320000000000E+0001  6.65350000000000E+0001  6.68800000000000E+0001  6.72400000000000E+0001  6.75220000000000E+0001  6.74940000000000E+0001  6.71530000000000E+0001  6.67190000000000E+0001  6.62800000000000E+0001  6.58560000000000E+0001  6.54450000000000E+0001  6.50410000000000E+0001  6.46380000000000E+0001  6.42260000000000E+0001  6.37840000000000E+0001  6.32410000000000E+0001  6.23060000000000E+0001  6.14969277710653E+0001  6.08548711114017E+0001  6.02835903828585E+0001  5.98796387412528E+0001 
 6.31752995742788E+0001  6.32306111489681E+0001  6.33352794494839E+0001  6.36929854570955E+0001  6.40560000000000E+0001  6.34360000000000E+0001  6.32390000000000E+0001  6.31880000000000E+0001  6.32000000000000E+0001  6.32430000000000E+0001  6.33040000000000E+0001  6.33770000000000E+0001  6.34580000000000E+0001  6.35460000000000E+0001  6.36400000000000E+0001  6.37390000000000E+0001  6.38450000000000E+0001  6.39590000000000E+0001  6.40840000000000E+0001  6.42230000000000E+0001  6.43800000000000E+0001  6.45590000000000E+0001  6.47690000000000E+0001  6.50190000000000E+0001  6.53210000000000E+0001  6.56930000000000E+0001  6.61610000000000E+0001  6.67500000000000E+0001  6.73930000000000E+0001  6.73670000000000E+0001  6.66660000000000E+0001  6.60060000000000E+0001  6.54430000000000E+0001  6.49490000000000E+0001  6.44900000000000E+0001  6.40460000000000E+0001  6.36020000000000E+0001  6.31440000000000E+0001  6.26490000000000E+0001  6.20780000000000E+0001  6.13710000000000E+0001  6.06310000000000E+0001  6.00247170795023E+0001  5.98238168485292E+0001  5.95679351308108E+0001 
 6.21773477937069E+0001  6.22338433573318E+0001  6.18845454065923E+0001  6.19855172027390E+0001  6.19861418700979E+0001  6.19880000000000E+0001  6.20010000000000E+0001  6.20310000000000E+0001  6.20750000000000E+0001  6.21320000000000E+0001  6.21980000000000E+0001  6.22750000000000E+0001  6.23590000000000E+0001  6.24510000000000E+0001  6.25490000000000E+0001  6.26560000000000E+0001  6.27710000000000E+0001  6.28950000000000E+0001  6.30320000000000E+0001  6.31830000000000E+0001  6.33530000000000E+0001  6.35460000000000E+0001  6.37710000000000E+0001  6.40380000000000E+0001  6.43630000000000E+0001  6.47750000000000E+0001  6.53390000000000E+0001  6.62150000000000E+0001  6.79060000000000E+0001  6.78850000000000E+0001  6.61460000000000E+0001  6.52080000000000E+0001  6.45580000000000E+0001  6.40250000000000E+0001  6.35420000000000E+0001  6.30740000000000E+0001  6.26030000000000E+0001  6.21180000000000E+0001  6.16090000000000E+0001  6.10630000000000E+0001  6.04780000000000E+0001  5.98980000000000E+0001  5.93560000000000E+0001  5.90782618349631E+0001  5.88487916706464E+0001 
 6.08031354728171E+0001  6.07468617001809E+0001  6.06369859920730E+0001  6.02809894306468E+0001  5.99080000000000E+0001  6.05420000000000E+0001  6.07730000000000E+0001  6.08880000000000E+0001  6.09690000000000E+0001  6.10410000000000E+0001  6.11160000000000E+0001  6.11960000000000E+0001  6.12830000000000E+0001  6.13770000000000E+0001  6.14810000000000E+0001  6.15920000000000E+0001  6.17140000000000E+0001  6.18460000000000E+0001  6.19910000000000E+0001  6.21500000000000E+0001  6.23270000000000E+0001  6.25270000000000E+0001  6.27550000000000E+0001  6.30200000000000E+0001  6.33370000000000E+0001  6.37230000000000E+0001  6.42070000000000E+0001  6.48130000000000E+0001  6.54750000000000E+0001  6.54640000000000E+0001  6.47740000000000E+0001  6.41230000000000E+0001  6.35680000000000E+0001  6.30710000000000E+0001  6.25980000000000E+0001  6.21240000000000E+0001  6.16370000000000E+0001  6.11360000000000E+0001  6.06230000000000E+0001  6.01050000000000E+0001  5.95980000000000E+0001  5.91440000000000E+0001  5.88240000000000E+0001  5.85493785731927E+0001  5.79902363051043E+0001 
 5.89544975757370E+0001  5.90051014660820E+0001  5.91673103162784E+0001  5.92446644384547E+0001  5.92790000000000E+0001  5.95080000000000E+0001  5.96830000000000E+0001  5.98050000000000E+0001  5.98980000000000E+0001  5.99790000000000E+0001  6.00580000000000E+0001  6.01400000000000E+0001  6.02280000000000E+0001  6.03250000000000E+0001  6.04310000000000E+0001  6.05470000000000E+0001  6.06730000000000E+0001  6.08110000000000E+0001  6.09610000000000E+0001  6.11240000000000E+0001  6.13040000000000E+0001  6.15020000000000E+0001  6.17230000000000E+0001  6.19730000000000E+0001  6.22590000000000E+0001  6.25880000000000E+0001  6.29600000000000E+0001  6.33500000000000E+0001  6.36640000000000E+0001  6.36680000000000E+0001  6.33570000000000E+0001  6.29510000000000E+0001  6.25320000000000E+0001  6.21100000000000E+0001  6.16720000000000E+0001  6.12040000000000E+0001  6.07030000000000E+0001  6.01820000000000E+0001  5.96590000000000E+0001  5.91540000000000E+0001  5.86850000000000E+0001  5.82820000000000E+0001  5.80020000000000E+0001  5.74688563000729E+0001  5.70943863715097E+0001 
 5.75806020690248E+0001  5.78896712231021E+0001  5.81704389905189E+0001  5.84448230202936E+0001  5.84480000000000E+0001  5.85530000000000E+0001  5.86720000000000E+0001  5.87760000000000E+0001  5.88650000000000E+0001  5.89460000000000E+0001  5.90250000000000E+0001  5.91060000000000E+0001  5.91940000000000E+0001  5.92910000000000E+0001  5.93980000000000E+0001  5.95170000000000E+0001  5.96470000000000E+0001  5.97880000000000E+0001  5.99410000000000E+0001  6.01060000000000E+0001  6.02830000000000E+0001  6.04750000000000E+0001  6.06820000000000E+0001  6.09080000000000E+0001  6.11550000000000E+0001  6.14230000000000E+0001  6.17030000000000E+0001  6.19670000000000E+0001  6.21540000000000E+0001  6.21800000000000E+0001  6.20400000000000E+0001  6.18040000000000E+0001  6.15170000000000E+0001  6.11840000000000E+0001  6.07930000000000E+0001  6.03330000000000E+0001  5.98070000000000E+0001  5.92430000000000E+0001  5.86930000000000E+0001  5.81840000000000E+0001  5.77270000000000E+0001  5.73200000000000E+0001  5.69260000000000E+0001  5.63520000000000E+0001  5.63122071963860E+0001 
 5.65924154921780E+0001  5.69160544569172E+0001  5.70229212169712E+0001  5.72913397218308E+0001  5.75390000000000E+0001  5.76080000000000E+0001  5.76980000000000E+0001  5.77860000000000E+0001  5.78660000000000E+0001  5.79400000000000E+0001  5.80150000000000E+0001  5.80930000000000E+0001  5.81780000000000E+0001  5.82740000000000E+0001  5.83810000000000E+0001  5.85010000000000E+0001  5.86330000000000E+0001  5.87770000000000E+0001  5.89320000000000E+0001  5.90970000000000E+0001  5.92710000000000E+0001  5.94520000000000E+0001  5.96420000000000E+0001  5.98400000000000E+0001  6.00470000000000E+0001  6.02610000000000E+0001  6.04740000000000E+0001  6.06670000000000E+0001  6.08090000000000E+0001  6.08650000000000E+0001  6.08300000000000E+0001  6.07270000000000E+0001  6.05650000000000E+0001  6.03320000000000E+0001  6.00000000000000E+0001  5.95430000000000E+0001  5.89610000000000E+0001  5.83040000000000E+0001  5.76990000000000E+0001  5.71780000000000E+0001  5.67380000000000E+0001  5.63650000000000E+0001  5.60470000000000E+0001  5.57850000000000E+0001  5.57337065966870E+0001 
 5.55135683575525E+0001  5.59168592833895E+0001  5.58454277648429E+0001  5.61505502762323E+0001  5.65850000000000E+0001  5.66660000000000E+0001  5.67510000000000E+0001  5.68260000000000E+0001  5.68940000000000E+0001  5.69590000000000E+0001  5.70250000000000E+0001  5.70970000000000E+0001  5.71780000000000E+0001  5.72710000000000E+0001  5.73770000000000E+0001  5.74970000000000E+0001  5.76310000000000E+0001  5.77780000000000E+0001  5.79360000000000E+0001  5.81010000000000E+0001  5.82710000000000E+0001  5.84420000000000E+0001  5.86120000000000E+0001  5.87800000000000E+0001  5.89470000000000E+0001  5.91140000000000E+0001  5.92780000000000E+0001  5.94300000000000E+0001  5.95590000000000E+0001  5.96510000000000E+0001  5.97050000000000E+0001  5.97250000000000E+0001  5.97030000000000E+0001  5.96000000000000E+0001  5.93480000000000E+0001  5.88910000000000E+0001  5.82000000000000E+0001  5.73210000000000E+0001  5.66300000000000E+0001  5.61050000000000E+0001  5.56970000000000E+0001  5.53760000000000E+0001  5.51330000000000E+0001  5.49820000000000E+0001  5.49565647993138E+0001 
 5.49746949886523E+0001  5.50426992449321E+0001  5.51398752190784E+0001  5.51380000000000E+0001  5.55720000000000E+0001  5.57440000000000E+0001  5.58350000000000E+0001  5.58960000000000E+0001  5.59480000000000E+0001  5.59970000000000E+0001  5.60520000000000E+0001  5.61150000000000E+0001  5.61890000000000E+0001  5.62780000000000E+0001  5.63830000000000E+0001  5.65030000000000E+0001  5.66400000000000E+0001  5.67910000000000E+0001  5.69530000000000E+0001  5.71220000000000E+0001  5.72900000000000E+0001  5.74520000000000E+0001  5.76020000000000E+0001  5.77390000000000E+0001  5.78640000000000E+0001  5.79840000000000E+0001  5.81050000000000E+0001  5.82290000000000E+0001  5.83570000000000E+0001  5.84890000000000E+0001  5.86300000000000E+0001  5.87840000000000E+0001  5.89410000000000E+0001  5.90360000000000E+0001  5.89160000000000E+0001  5.84790000000000E+0001  5.76230000000000E+0001  5.61440000000000E+0001  5.53990000000000E+0001  5.49240000000000E+0001  5.45830000000000E+0001  5.43290000000000E+0001  5.41500000000000E+0001  5.40520000000000E+0001  5.40355219509210E+0001 
 5.45197806645162E+0001  5.45935675909339E+0001  5.46907862339543E+0001  5.47090000000000E+0001  5.48380000000000E+0001  5.49210000000000E+0001  5.49680000000000E+0001  5.49980000000000E+0001  5.50230000000000E+0001  5.50520000000000E+0001  5.50910000000000E+0001  5.51420000000000E+0001  5.52080000000000E+0001  5.52920000000000E+0001  5.53950000000000E+0001  5.55170000000000E+0001  5.56580000000000E+0001  5.58150000000000E+0001  5.59860000000000E+0001  5.61620000000000E+0001  5.63350000000000E+0001  5.64930000000000E+0001  5.66250000000000E+0001  5.67260000000000E+0001  5.68020000000000E+0001  5.68670000000000E+0001  5.69410000000000E+0001  5.70360000000000E+0001  5.71620000000000E+0001  5.73300000000000E+0001  5.75550000000000E+0001  5.78580000000000E+0001  5.82600000000000E+0001  5.87010000000000E+0001  5.88070000000000E+0001  5.83480575322089E+0001  5.61940185897441E+0001  5.41710000000000E+0001  5.38900000000000E+0001  5.36160000000000E+0001  5.33940000000000E+0001  5.32240000000000E+0001  5.31070000000000E+0001  5.30460000000000E+0001  5.30381754525548E+0001 
 5.41912191686364E+0001  5.41833930642955E+0001  5.41844556616068E+0001  5.41710000000000E+0001  5.41690000000000E+0001  5.41570000000000E+0001  5.41390000000000E+0001  5.41230000000000E+0001  5.41150000000000E+0001  5.41180000000000E+0001  5.41360000000000E+0001  5.41730000000000E+0001  5.42290000000000E+0001  5.43070000000000E+0001  5.44080000000000E+0001  5.45320000000000E+0001  5.46790000000000E+0001  5.48480000000000E+0001  5.50330000000000E+0001  5.52260000000000E+0001  5.54140000000000E+0001  5.55790000000000E+0001  5.56980000000000E+0001  5.57570000000000E+0001  5.57650000000000E+0001  5.57570000000000E+0001  5.57680000000000E+0001  5.58210000000000E+0001  5.59340000000000E+0001  5.61240000000000E+0001  5.64140000000000E+0001  5.68430000000000E+0001  5.75530000000000E+0001  5.81424413942525E+0001  5.81594726698643E+0001  5.59971983682642E+0001  5.32297649681627E+0001  5.24490000000000E+0001  5.23680000000000E+0001  5.22620000000000E+0001  5.21630000000000E+0001  5.20820000000000E+0001  5.20270000000000E+0001  5.19980000000000E+0001  5.19993725624949E+0001 
 5.38446985841767E+0001  5.38125491800579E+0001  5.36943994711136E+0001  5.36530000000000E+0001  5.35300000000000E+0001  5.34180000000000E+0001  5.33290000000000E+0001  5.32600000000000E+0001  5.32130000000000E+0001  5.31860000000000E+0001  5.31820000000000E+0001  5.32020000000000E+0001  5.32470000000000E+0001  5.33180000000000E+0001  5.34180000000000E+0001  5.35450000000000E+0001  5.37000000000000E+0001  5.38830000000000E+0001  5.40910000000000E+0001  5.43140000000000E+0001  5.45360000000000E+0001  5.47280000000000E+0001  5.48490000000000E+0001  5.48560000000000E+0001  5.47610000000000E+0001  5.46420000000000E+0001  5.45630000000000E+0001  5.45550000000000E+0001  5.46360000000000E+0001  5.48230000000000E+0001  5.51390000000000E+0001  5.55470000000000E+0001  5.64083455400330E+0001  5.72711439175632E+0001  5.48533530005197E+0001  5.11960721966362E+0001  4.99974679430291E+0001  5.07890000000000E+0001  5.08650000000000E+0001  5.09070000000000E+0001  5.09230000000000E+0001  5.09290000000000E+0001  5.09350000000000E+0001  5.09400000000000E+0001  5.09502366501979E+0001 
 5.34949215350004E+0001  5.33337113069361E+0001  5.33011672807436E+0001  5.32730000000000E+0001  5.28970000000000E+0001  5.26750000000000E+0001  5.25150000000000E+0001  5.23940000000000E+0001  5.23070000000000E+0001  5.22490000000000E+0001  5.22210000000000E+0001  5.22220000000000E+0001  5.22550000000000E+0001  5.23190000000000E+0001  5.24160000000000E+0001  5.25460000000000E+0001  5.27120000000000E+0001  5.29130000000000E+0001  5.31520000000000E+0001  5.34220000000000E+0001  5.37070000000000E+0001  5.39670000000000E+0001  5.41340000000000E+0001  5.40750000000000E+0001  5.37960000000000E+0001  5.34990000000000E+0001  5.32950000000000E+0001  5.32050000000000E+0001  5.32320000000000E+0001  5.33940000000000E+0001  5.37700000000000E+0001  5.46630000000000E+0001  5.49838223058512E+0001  5.48541629941200E+0001  5.01897872259050E+0001  4.78550380759589E+0001  4.81820000000000E+0001  4.90330000000000E+0001  4.93910000000000E+0001  4.95810000000000E+0001  4.97020000000000E+0001  4.97900000000000E+0001  4.98580000000000E+0001  4.99020000000000E+0001  4.99227786430182E+0001 
 5.31670633640443E+0001  5.28141982618828E+0001  5.27808458926939E+0001  5.24865382608543E+0001  5.21260000000000E+0001  5.18880000000000E+0001  5.16770000000000E+0001  5.15120000000000E+0001  5.13870000000000E+0001  5.12980000000000E+0001  5.12450000000000E+0001  5.12270000000000E+0001  5.12460000000000E+0001  5.13020000000000E+0001  5.13950000000000E+0001  5.15280000000000E+0001  5.17030000000000E+0001  5.19240000000000E+0001  5.21970000000000E+0001  5.25320000000000E+0001  5.29220000000000E+0001  5.33160000000000E+0001  5.36590000000000E+0001  5.35320000000000E+0001  5.28600000000000E+0001  5.22720000000000E+0001  5.19170000000000E+0001  5.17390000000000E+0001  5.16890000000000E+0001  5.17390000000000E+0001  5.18520000000000E+0001  5.26899278900372E+0001  5.31295386303135E+0001  5.05437297010063E+0001  4.66439755002279E+0001  4.65644437775915E+0001  4.73260000000000E+0001  4.77390000000000E+0001  4.80800000000000E+0001  4.83300000000000E+0001  4.85220000000000E+0001  4.86810000000000E+0001  4.88210000000000E+0001  4.89240000000000E+0001  4.89559597934109E+0001 
 5.25004687005702E+0001  5.24395778816480E+0001  5.21297897824332E+0001  5.18158594203784E+0001  5.16070000000000E+0001  5.10900000000000E+0001  5.08090000000000E+0001  5.06050000000000E+0001  5.04460000000000E+0001  5.03270000000000E+0001  5.02480000000000E+0001  5.02100000000000E+0001  5.02140000000000E+0001  5.02600000000000E+0001  5.03490000000000E+0001  5.04820000000000E+0001  5.06610000000000E+0001  5.08950000000000E+0001  5.11970000000000E+0001  5.16010000000000E+0001  5.21470000000000E+0001  5.27300000000000E+0001  5.32272650674651E+0001  5.29394774972709E+0001  5.18400000000000E+0001  5.08050000000000E+0001  5.03550000000000E+0001  5.01350000000000E+0001  5.00330000000000E+0001  5.00020000000000E+0001  5.00100000000000E+0001  5.02025214069839E+0001  4.98307708484199E+0001  4.68448471672137E+0001  4.52833210799181E+0001  4.53870000000000E+0001  4.60670000000000E+0001  4.65140000000000E+0001  4.68620000000000E+0001  4.71430000000000E+0001  4.73820000000000E+0001  4.76040000000000E+0001  4.78320000000000E+0001  4.80670000000000E+0001  4.81298885716352E+0001 
 5.15789759827986E+0001  5.15187819089386E+0001  5.10168415810443E+0001  5.10514640237886E+0001  5.05599901081514E+0001  5.00640000000000E+0001  4.98770000000000E+0001  4.96660000000000E+0001  4.94770000000000E+0001  4.93270000000000E+0001  4.92210000000000E+0001  4.91620000000000E+0001  4.91510000000000E+0001  4.91860000000000E+0001  4.92690000000000E+0001  4.94000000000000E+0001  4.95780000000000E+0001  4.98080000000000E+0001  5.01060000000000E+0001  5.05370000000000E+0001  5.13430000000000E+0001  5.20406141784310E+0001  5.27605966221023E+0001  5.11515794454907E+0001  4.97906729512351E+0001  4.87030000000000E+0001  4.85390000000000E+0001  4.83950000000000E+0001  4.82850000000000E+0001  4.82000000000000E+0001  4.81420000000000E+0001  4.78519457110393E+0001  4.61403973871039E+0001  4.36781695007166E+0001  4.43979919307994E+0001  4.47070000000000E+0001  4.50340000000000E+0001  4.53890000000000E+0001  4.57150000000000E+0001  4.60040000000000E+0001  4.62670000000000E+0001  4.65280000000000E+0001  4.68500000000000E+0001  4.74580000000000E+0001  4.74893054682093E+0001 